packages/bdgd2opendss/bdgd2opendss-1.0.1.tar.gz/bdgd2opendss-1.0.1/tests/dss_models_output/sub__SE001/18_SE001_1/GD_BT_202312598_18_SE001_1_------1-----.dss
New "LoadShape.default_pv_daily_bt" npts=24 interval=1 
~ mult = [0 0 0 0 0 0 0.1 0.2 0.3 0.5 0.8 0.9 1.0 1.0 0.99 0.9 0.7 0.4 0.1 0 0 0 0 0] 

New "generator.GD.RS.001.813.715" phases=3 bus1=UC1828156.1.2.3.4 basefreq=60 conn=Delta kv=0.38 pf=0.92 kw=11.0 daily=default_pv_daily_bt 

New "generator.GD.RS.000.258.637" phases=1 bus1=UC2327787.3.4 basefreq=60 conn=Wye kv=0.2193931022920578 pf=0.92 kw=10.0 daily=default_pv_daily_bt 

New "generator.GD.RS.001.676.111" phases=1 bus1=UC2328041.1.4 basefreq=60 conn=Wye kv=0.2193931022920578 pf=0.92 kw=4.86 daily=default_pv_daily_bt 

New "generator.GD.RS.001.751.946" phases=1 bus1=UC1828049.3.4 basefreq=60 conn=Wye kv=0.2193931022920578 pf=0.92 kw=4.95 daily=default_pv_daily_bt 

New "generator.GD.RS.001.676.190" phases=1 bus1=UC2328058.1.2.4 basefreq=60 conn=Delta kv=0.38 pf=0.92 kw=10.0 daily=default_pv_daily_bt 

New "generator.GD.RS.001.197.746" phases=1 bus1=UC1828062.2.4 basefreq=60 conn=Wye kv=0.2193931022920578 pf=0.92 kw=2.68 daily=default_pv_daily_bt 

New "generator.GD.RS.001.676.050" phases=3 bus1=UC2326907.1.2.3.4 basefreq=60 conn=Delta kv=0.38 pf=0.92 kw=9.72 daily=default_pv_daily_bt 

New "generator.GD.RS.000.048.153" phases=3 bus1=UC1826137.1.2.3.4 basefreq=60 conn=Delta kv=0.38 pf=0.92 kw=35.75 daily=default_pv_daily_bt 

New "generator.GD.RS.000.762.002" phases=3 bus1=UC2926136.1.2.3.4 basefreq=60 conn=Delta kv=0.38 pf=0.92 kw=75.0 daily=default_pv_daily_bt 

New "generator.GD.RS.000.761.602" phases=1 bus1=UC1826942.1.4 basefreq=60 conn=Wye kv=0.2193931022920578 pf=0.92 kw=6.0 daily=default_pv_daily_bt 

New "generator.GD.RS.001.255.577" phases=3 bus1=UC2326934.1.2.3.4 basefreq=60 conn=Delta kv=0.38 pf=0.92 kw=5.4 daily=default_pv_daily_bt 

New "generator.GD.RS.000.588.175" phases=3 bus1=UC1826955.1.2.3.4 basefreq=60 conn=Delta kv=0.38 pf=0.92 kw=12.0 daily=default_pv_daily_bt 

New "generator.GD.RS.001.677.409" phases=1 bus1=UC2910453.1.2.4 basefreq=60 conn=Delta kv=0.44 pf=0.92 kw=8.0 daily=default_pv_daily_bt 

New "generator.GD.RS.000.447.097" phases=3 bus1=UC2910507.1.2.3.4 basefreq=60 conn=Delta kv=0.38 pf=0.92 kw=17.0 daily=default_pv_daily_bt 

New "generator.GD.RS.001.922.720" phases=1 bus1=UC2910500.1.2.4 basefreq=60 conn=Delta kv=0.44 pf=0.92 kw=30.0 daily=default_pv_daily_bt 

New "generator.GD.RS.000.622.723" phases=3 bus1=UC2910494.1.2.3.4 basefreq=60 conn=Delta kv=0.38 pf=0.92 kw=10.8 daily=default_pv_daily_bt 

New "generator.GD.RS.000.586.581" phases=1 bus1=UC2721658.1.4 basefreq=60 conn=Wye kv=0.22 pf=0.92 kw=4.95 daily=default_pv_daily_bt 

New "generator.GD.RS.001.529.820" phases=3 bus1=UC2920306.1.2.3.4 basefreq=60 conn=Delta kv=0.38 pf=0.92 kw=4.95 daily=default_pv_daily_bt 

New "generator.GD.RS.001.121.126" phases=1 bus1=UC2916311.1.2.4 basefreq=60 conn=Delta kv=0.44 pf=0.92 kw=3.0 daily=default_pv_daily_bt 

New "generator.GD.RS.000.473.674" phases=3 bus1=UC2916357.1.2.3.4 basefreq=60 conn=Delta kv=0.38 pf=0.92 kw=20.0 daily=default_pv_daily_bt 

New "generator.GD.RS.000.473.582" phases=1 bus1=UC2324254.1.4 basefreq=60 conn=Wye kv=0.2193931022920578 pf=0.92 kw=7.5 daily=default_pv_daily_bt 

New "generator.GD.RS.001.002.170" phases=3 bus1=UC2307119.1.2.3.4 basefreq=60 conn=Delta kv=0.38 pf=0.92 kw=17.8 daily=default_pv_daily_bt 

New "generator.GD.RS.000.291.790" phases=3 bus1=UC2307110.1.2.3.4 basefreq=60 conn=Delta kv=0.38 pf=0.92 kw=5.66 daily=default_pv_daily_bt 

New "generator.GD.RS.001.675.907" phases=1 bus1=UC2307114.1.4 basefreq=60 conn=Wye kv=0.22 pf=0.92 kw=7.28 daily=default_pv_daily_bt 

New "generator.GD.RS.001.676.011" phases=1 bus1=UC2323848.3.4 basefreq=60 conn=Wye kv=0.2193931022920578 pf=0.92 kw=3.64 daily=default_pv_daily_bt 

New "generator.GD.RS.000.970.633" phases=3 bus1=UC2325935.1.2.3.4 basefreq=60 conn=Delta kv=0.38 pf=0.92 kw=8.01 daily=default_pv_daily_bt 

New "generator.GD.RS.000.258.631" phases=3 bus1=UC2325927.1.2.3.4 basefreq=60 conn=Delta kv=0.38 pf=0.92 kw=10.22 daily=default_pv_daily_bt 

New "generator.GD.RS.002.201.498" phases=1 bus1=UC2321665.1.2.4 basefreq=60 conn=Delta kv=0.38 pf=0.92 kw=5.5 daily=default_pv_daily_bt 

New "generator.GD.RS.000.819.385" phases=3 bus1=UC2321667.1.2.3.4 basefreq=60 conn=Delta kv=0.38 pf=0.92 kw=10.12 daily=default_pv_daily_bt 

New "generator.GD.RS.001.922.636" phases=1 bus1=UC2309712.1.4 basefreq=60 conn=Wye kv=0.22 pf=0.92 kw=4.48 daily=default_pv_daily_bt 

New "generator.GD.RS.002.112.039" phases=1 bus1=UC2307096.1.2.4 basefreq=60 conn=Delta kv=0.44 pf=0.92 kw=5.5 daily=default_pv_daily_bt 

New "generator.GD.RS.000.275.701" phases=1 bus1=UC2323339.1.4 basefreq=60 conn=Wye kv=0.22 pf=0.92 kw=4.0 daily=default_pv_daily_bt 

New "generator.GD.RS.001.370.796" phases=1 bus1=UC2325680.2.4 basefreq=60 conn=Wye kv=0.2193931022920578 pf=0.92 kw=3.15 daily=default_pv_daily_bt 

New "generator.GD.RS.001.591.906" phases=1 bus1=UC2306809.2.4 basefreq=60 conn=Wye kv=0.2193931022920578 pf=0.92 kw=5.04 daily=default_pv_daily_bt 

New "generator.GD.RS.000.372.085" phases=1 bus1=UC2306843.2.4 basefreq=60 conn=Wye kv=0.2193931022920578 pf=0.92 kw=6.15 daily=default_pv_daily_bt 

New "generator.GD.RS.000.400.686" phases=3 bus1=UC2306845.1.2.3.4 basefreq=60 conn=Delta kv=0.38 pf=0.92 kw=12.24 daily=default_pv_daily_bt 

New "generator.GD.RS.001.370.775" phases=1 bus1=UC2306896.1.2.4 basefreq=60 conn=Delta kv=0.44 pf=0.92 kw=5.4 daily=default_pv_daily_bt 

New "generator.GD.RS.000.372.451" phases=3 bus1=UC2306893.1.2.3.4 basefreq=60 conn=Delta kv=0.38 pf=0.92 kw=13.49 daily=default_pv_daily_bt 

New "generator.GD.RS.000.824.601" phases=3 bus1=UC2306792.1.2.3.4 basefreq=60 conn=Delta kv=0.38 pf=0.92 kw=10.0 daily=default_pv_daily_bt 

New "generator.GD.RS.001.067.016" phases=3 bus1=UC2306793.1.2.3.4 basefreq=60 conn=Delta kv=0.38 pf=0.92 kw=29.15 daily=default_pv_daily_bt 

New "generator.GD.RS.000.761.890" phases=1 bus1=UC2306947.2.4 basefreq=60 conn=Wye kv=0.2193931022920578 pf=0.92 kw=5.0 daily=default_pv_daily_bt 

New "generator.GD.RS.000.824.608" phases=1 bus1=UC2306986.3.4 basefreq=60 conn=Wye kv=0.2193931022920578 pf=0.92 kw=2.0 daily=default_pv_daily_bt 

New "generator.GD.RS.000.258.621" phases=1 bus1=UC2306945.2.4 basefreq=60 conn=Wye kv=0.2193931022920578 pf=0.92 kw=4.0 daily=default_pv_daily_bt 

New "generator.GD.RS.001.958.455" phases=1 bus1=UC2316241.1.4 basefreq=60 conn=Wye kv=0.22 pf=0.92 kw=4.44 daily=default_pv_daily_bt 

New "generator.GD.RS.000.400.913" phases=3 bus1=UC2306980.1.2.3.4 basefreq=60 conn=Delta kv=0.38 pf=0.92 kw=15.0 daily=default_pv_daily_bt 

New "generator.GD.RS.001.002.132" phases=1 bus1=UC2306860.1.2.4 basefreq=60 conn=Delta kv=0.38 pf=0.92 kw=4.05 daily=default_pv_daily_bt 

New "generator.GD.RS.000.588.164" phases=1 bus1=UC2307700.3.4 basefreq=60 conn=Wye kv=0.2193931022920578 pf=0.92 kw=2.64 daily=default_pv_daily_bt 

New "generator.GD.RS.001.813.865" phases=3 bus1=UC2320994.1.2.3.4 basefreq=60 conn=Delta kv=0.38 pf=0.92 kw=30.0 daily=default_pv_daily_bt 

New "generator.GD.RS.000.258.657" phases=1 bus1=UC2320972.1.4 basefreq=60 conn=Wye kv=0.2193931022920578 pf=0.92 kw=4.0 daily=default_pv_daily_bt 

New "generator.GD.RS.001.002.154" phases=3 bus1=UC2307065.1.2.3.4 basefreq=60 conn=Delta kv=0.38 pf=0.92 kw=11.88 daily=default_pv_daily_bt 

New "generator.GD.RS.001.816.842" phases=1 bus1=UC2320336.2.4 basefreq=60 conn=Wye kv=0.22 pf=0.92 kw=3.6 daily=default_pv_daily_bt 

New "generator.GD.RS.001.591.941" phases=3 bus1=UC2307060.1.2.3.4 basefreq=60 conn=Delta kv=0.38 pf=0.92 kw=5.0 daily=default_pv_daily_bt 

New "generator.GD.RS.001.002.181" phases=1 bus1=UC2317475.1.2.4 basefreq=60 conn=Delta kv=0.44 pf=0.92 kw=16.72 daily=default_pv_daily_bt 

New "generator.GD.RS.000.235.137" phases=1 bus1=UC2320327.1.4 basefreq=60 conn=Wye kv=0.2193931022920578 pf=0.92 kw=4.02 daily=default_pv_daily_bt 

New "generator.GD.RS.000.912.906" phases=1 bus1=UC2307050.1.2.4 basefreq=60 conn=Delta kv=0.44 pf=0.92 kw=6.8 daily=default_pv_daily_bt 

New "generator.GD.RS.000.969.981" phases=3 bus1=UC2307046.1.2.3.4 basefreq=60 conn=Delta kv=0.38 pf=0.92 kw=25.0 daily=default_pv_daily_bt 

New "generator.GD.RS.000.447.305" phases=3 bus1=UC2306826.1.2.3.4 basefreq=60 conn=Delta kv=0.38 pf=0.92 kw=40.0 daily=default_pv_daily_bt 

New "generator.GD.RS.001.120.878" phases=3 bus1=UC2306912.1.2.3.4 basefreq=60 conn=Delta kv=0.38 pf=0.92 kw=7.15 daily=default_pv_daily_bt 

New "generator.GD.RS.000.588.167" phases=3 bus1=UC1820325.1.2.3.4 basefreq=60 conn=Delta kv=0.38 pf=0.92 kw=8.28 daily=default_pv_daily_bt 

New "generator.GD.RS.000.344.314" phases=1 bus1=UC1824615.1.4 basefreq=60 conn=Wye kv=0.2193931022920578 pf=0.92 kw=4.0 daily=default_pv_daily_bt 

New "generator.GD.RS.000.588.242" phases=3 bus1=UC1824604.1.2.3.4 basefreq=60 conn=Delta kv=0.38 pf=0.92 kw=7.3 daily=default_pv_daily_bt 

New "generator.GD.RS.001.591.733" phases=3 bus1=UC1808408.1.2.3.4 basefreq=60 conn=Delta kv=0.38 pf=0.92 kw=7.02 daily=default_pv_daily_bt 

New "generator.GD.RS.001.119.187" phases=3 bus1=UC1825539.1.2.3.4 basefreq=60 conn=Delta kv=0.38 pf=0.92 kw=8.56 daily=default_pv_daily_bt 

New "generator.GD.RS.001.751.927" phases=1 bus1=UC1808220.1.4 basefreq=60 conn=Wye kv=0.2193931022920578 pf=0.92 kw=5.0 daily=default_pv_daily_bt 

New "generator.GD.RS.000.970.492" phases=1 bus1=UC1818144.1.4 basefreq=60 conn=Wye kv=0.2193931022920578 pf=0.92 kw=3.0 daily=default_pv_daily_bt 

New "generator.GD.RS.000.859.209" phases=1 bus1=UC1824108.1.4 basefreq=60 conn=Wye kv=0.22 pf=0.92 kw=5.0 daily=default_pv_daily_bt 

New "generator.GD.RS.001.255.449" phases=1 bus1=UC1809841.1.4 basefreq=60 conn=Wye kv=0.2193931022920578 pf=0.92 kw=3.75 daily=default_pv_daily_bt 

New "generator.GD.RS.001.120.717" phases=1 bus1=UC1820049.1.2.4 basefreq=60 conn=Delta kv=0.44 pf=0.92 kw=6.36 daily=default_pv_daily_bt 

New "generator.GD.RS.001.528.731" phases=3 bus1=UC1818967.1.2.3.4 basefreq=60 conn=Delta kv=0.38 pf=0.92 kw=12.92 daily=default_pv_daily_bt 

New "generator.GD.RS.000.912.776" phases=1 bus1=UC1821891.3.4 basefreq=60 conn=Wye kv=0.2193931022920578 pf=0.92 kw=3.56 daily=default_pv_daily_bt 

New "generator.GD.RS.000.400.618" phases=1 bus1=UC1825779.3.4 basefreq=60 conn=Wye kv=0.2193931022920578 pf=0.92 kw=4.02 daily=default_pv_daily_bt 

New "generator.GD.RS.000.761.572" phases=1 bus1=UC1808436.1.2.4 basefreq=60 conn=Delta kv=0.44 pf=0.92 kw=12.0 daily=default_pv_daily_bt 

New "generator.GD.RS.001.675.399" phases=3 bus1=UC1809810.1.2.3.4 basefreq=60 conn=Delta kv=0.38 pf=0.92 kw=8.8 daily=default_pv_daily_bt 

New "generator.GD.RS.000.371.931" phases=1 bus1=UC1808429.1.4 basefreq=60 conn=Wye kv=0.2193931022920578 pf=0.92 kw=6.0 daily=default_pv_daily_bt 

New "generator.GD.RS.001.528.715" phases=1 bus1=UC1808431.1.4 basefreq=60 conn=Wye kv=0.2193931022920578 pf=0.92 kw=3.3 daily=default_pv_daily_bt 

New "generator.GD.RS.000.686.273" phases=1 bus1=UC1823487.2.4 basefreq=60 conn=Wye kv=0.2193931022920578 pf=0.92 kw=3.0 daily=default_pv_daily_bt 

New "generator.GD.RS.001.002.037" phases=1 bus1=UC1823347.1.4 basefreq=60 conn=Wye kv=0.2193931022920578 pf=0.92 kw=6.0 daily=default_pv_daily_bt 

New "generator.GD.RS.001.751.938" phases=1 bus1=UC1821162.3.4 basefreq=60 conn=Wye kv=0.2193931022920578 pf=0.92 kw=3.6 daily=default_pv_daily_bt 

New "generator.GD.RS.000.586.436" phases=3 bus1=UC1820722.1.2.3.4 basefreq=60 conn=Delta kv=0.38 pf=0.92 kw=9.18 daily=default_pv_daily_bt 

New "generator.GD.RS.000.446.802" phases=3 bus1=UC1820723.1.2.3.4 basefreq=60 conn=Delta kv=0.38 pf=0.92 kw=12.0 daily=default_pv_daily_bt 

New "generator.GD.RS.001.066.722" phases=3 bus1=UC1817516.1.2.3.4 basefreq=60 conn=Delta kv=0.38 pf=0.92 kw=9.18 daily=default_pv_daily_bt 

New "generator.GD.RS.001.675.381" phases=1 bus1=UC1808349.2.4 basefreq=60 conn=Wye kv=0.2193931022920578 pf=0.92 kw=6.0 daily=default_pv_daily_bt 

New "generator.GD.RS.000.446.791" phases=1 bus1=UC1808240.1.2.4 basefreq=60 conn=Delta kv=0.44 pf=0.92 kw=3.0 daily=default_pv_daily_bt 

New "generator.GD.RS.001.528.655" phases=3 bus1=UC1807992.1.2.3.4 basefreq=60 conn=Delta kv=0.38 pf=0.92 kw=6.75 daily=default_pv_daily_bt 

New "generator.GD.RS.001.993.401" phases=1 bus1=UC1807853.1.2.4 basefreq=60 conn=Delta kv=0.44 pf=0.92 kw=6.6 daily=default_pv_daily_bt 

New "generator.GD.RS.001.429.842" phases=3 bus1=UC1807767.1.2.3.4 basefreq=60 conn=Delta kv=0.38 pf=0.92 kw=12.0 daily=default_pv_daily_bt 

New "generator.GD.RS.001.429.874" phases=1 bus1=UC1807913.1.4 basefreq=60 conn=Wye kv=0.2193931022920578 pf=0.92 kw=5.0 daily=default_pv_daily_bt 

New "generator.GD.RS.000.310.371" phases=1 bus1=UC1807703.3.4 basefreq=60 conn=Wye kv=0.2193931022920578 pf=0.92 kw=4.0 daily=default_pv_daily_bt 

New "generator.GD.RS.001.001.907" phases=1 bus1=UC1807483.1.4 basefreq=60 conn=Wye kv=0.2193931022920578 pf=0.92 kw=5.0 daily=default_pv_daily_bt 

New "generator.GD.RS.001.675.341" phases=1 bus1=UC1807757.1.4 basefreq=60 conn=Wye kv=0.2193931022920578 pf=0.92 kw=2.66 daily=default_pv_daily_bt 

New "generator.GD.RS.001.255.351" phases=3 bus1=UC1705111.1.2.3.4 basefreq=60 conn=Delta kv=0.38 pf=0.92 kw=18.09 daily=default_pv_daily_bt 

New "generator.GD.RS.001.001.995" phases=3 bus1=UC1807749.1.2.3.4 basefreq=60 conn=Delta kv=0.38 pf=0.92 kw=15.0 daily=default_pv_daily_bt 

New "generator.GD.RS.001.066.702" phases=3 bus1=UC1808033.1.2.3.4 basefreq=60 conn=Delta kv=0.38 pf=0.92 kw=6.67 daily=default_pv_daily_bt 

New "generator.GD.RS.001.001.971" phases=1 bus1=UC1808125.1.2.4 basefreq=60 conn=Delta kv=0.44 pf=0.92 kw=10.0 daily=default_pv_daily_bt 

New "generator.GD.RS.000.447.082" phases=3 bus1=UC1807518.1.2.3.4 basefreq=60 conn=Delta kv=0.38 pf=0.92 kw=4.8 daily=default_pv_daily_bt 

New "generator.GD.RS.000.761.539" phases=3 bus1=UC1808030.1.2.3.4 basefreq=60 conn=Delta kv=0.38 pf=0.92 kw=5.6 daily=default_pv_daily_bt 

New "generator.GD.RS.000.761.520" phases=3 bus1=UC1807885.1.2.3.4 basefreq=60 conn=Delta kv=0.38 pf=0.92 kw=11.12 daily=default_pv_daily_bt 

New "generator.GD.RS.000.344.336" phases=3 bus1=UC1807514.1.2.3.4 basefreq=60 conn=Delta kv=0.38 pf=0.92 kw=4.76 daily=default_pv_daily_bt 

New "generator.GD.RS.001.993.361" phases=1 bus1=UC1807442.2.4 basefreq=60 conn=Wye kv=0.2193931022920578 pf=0.92 kw=3.6 daily=default_pv_daily_bt 

New "generator.GD.RS.001.197.681" phases=1 bus1=UC1807507.1.4 basefreq=60 conn=Wye kv=0.2193931022920578 pf=0.92 kw=4.6 daily=default_pv_daily_bt 

New "generator.GD.RS.001.528.670" phases=1 bus1=UC1808016.1.4 basefreq=60 conn=Wye kv=0.2193931022920578 pf=0.92 kw=3.3 daily=default_pv_daily_bt 

New "generator.GD.RS.000.859.191" phases=1 bus1=UC1807498.1.4 basefreq=60 conn=Wye kv=0.2193931022920578 pf=0.92 kw=2.38 daily=default_pv_daily_bt 

New "generator.GD.RS.000.523.640" phases=3 bus1=UC1808275.1.2.3.4 basefreq=60 conn=Delta kv=0.38 pf=0.92 kw=20.0 daily=default_pv_daily_bt 

New "generator.GD.RS.001.066.718" phases=3 bus1=UC1808108.1.2.3.4 basefreq=60 conn=Delta kv=0.38 pf=0.92 kw=8.9 daily=default_pv_daily_bt 

New "generator.GD.RS.002.076.393" phases=1 bus1=UC1819453.1.2.4 basefreq=60 conn=Delta kv=0.44 pf=0.92 kw=4.0 daily=default_pv_daily_bt 

New "generator.GD.RS.000.447.251" phases=1 bus1=UC1807955.2.3.4 basefreq=60 conn=Delta kv=0.38 pf=0.92 kw=6.0 daily=default_pv_daily_bt 

New "generator.GD.RS.001.429.819" phases=1 bus1=UC1807668.2.4 basefreq=60 conn=Wye kv=0.2193931022920578 pf=0.92 kw=3.6 daily=default_pv_daily_bt 

New "generator.GD.RS.000.447.029" phases=1 bus1=UC1808091.1.4 basefreq=60 conn=Wye kv=0.2193931022920578 pf=0.92 kw=4.0 daily=default_pv_daily_bt 

New "generator.GD.RS.000.310.173" phases=3 bus1=UC1807794.1.2.3.4 basefreq=60 conn=Delta kv=0.38 pf=0.92 kw=12.92 daily=default_pv_daily_bt 

New "generator.GD.RS.001.958.420" phases=1 bus1=UC1807796.1.2.4 basefreq=60 conn=Delta kv=0.38 pf=0.92 kw=7.15 daily=default_pv_daily_bt 

New "generator.GD.RS.001.675.351" phases=1 bus1=UC1808078.1.4 basefreq=60 conn=Wye kv=0.22 pf=0.92 kw=3.39 daily=default_pv_daily_bt 

New "generator.GD.RS.000.912.767" phases=3 bus1=UC1808071.1.2.3.4 basefreq=60 conn=Delta kv=0.38 pf=0.92 kw=15.0 daily=default_pv_daily_bt 

New "generator.GD.RS.001.197.723" phases=3 bus1=UC1808065.1.2.3.4 basefreq=60 conn=Delta kv=0.38 pf=0.92 kw=21.76 daily=default_pv_daily_bt 

New "generator.GD.RS.001.522.874" phases=3 bus1=UC1519249.1.2.3.4 basefreq=60 conn=Delta kv=0.38 pf=0.92 kw=30.0 daily=default_pv_daily_bt 

New "generator.GD.RS.000.761.485" phases=3 bus1=UC1510551.1.2.3.4 basefreq=60 conn=Delta kv=0.38 pf=0.92 kw=20.0 daily=default_pv_daily_bt 

New "generator.GD.RS.001.522.862" phases=1 bus1=UC1510543.1.2.4 basefreq=60 conn=Delta kv=0.44 pf=0.92 kw=20.0 daily=default_pv_daily_bt 

New "generator.GD.RS.000.859.090" phases=1 bus1=UC1510546.1.4 basefreq=60 conn=Wye kv=0.22 pf=0.92 kw=3.64 daily=default_pv_daily_bt 

New "generator.GD.RS.002.034.239" phases=1 bus1=UC1509722.1.4 basefreq=60 conn=Wye kv=0.22 pf=0.92 kw=6.0 daily=default_pv_daily_bt 

New "generator.GD.RS.000.824.493" phases=3 bus1=UC1725092.1.2.3.4 basefreq=60 conn=Delta kv=0.38 pf=0.92 kw=13.6 daily=default_pv_daily_bt 

New "generator.GD.RS.000.523.634" phases=1 bus1=UC1807452.3.4 basefreq=60 conn=Wye kv=0.2193931022920578 pf=0.92 kw=8.0 daily=default_pv_daily_bt 

New "generator.GD.RS.000.344.207" phases=3 bus1=UC1704706.1.2.3.4 basefreq=60 conn=Delta kv=0.38 pf=0.92 kw=12.0 daily=default_pv_daily_bt 

New "generator.GD.RS.000.818.871" phases=1 bus1=UC510111.1.2.4 basefreq=60 conn=Delta kv=0.44 pf=0.92 kw=8.0 daily=default_pv_daily_bt 

New "generator.GD.RS.001.993.417" phases=3 bus1=UC1839500.1.2.3.4 basefreq=60 conn=Delta kv=0.38 pf=0.92 kw=12.21 daily=default_pv_daily_bt 

New "generator.GD.RS.001.922.538" phases=1 bus1=UC1827889.1.4 basefreq=60 conn=Wye kv=0.22 pf=0.92 kw=5.0 daily=default_pv_daily_bt 

New "generator.GD.RS.001.370.812" phases=1 bus1=UC2327378.1.4 basefreq=60 conn=Wye kv=0.2193931022920578 pf=0.92 kw=5.0 daily=default_pv_daily_bt 

New "generator.GD.RS.000.969.198" phases=3 bus1=UC1807948.1.2.3.4 basefreq=60 conn=Delta kv=0.38 pf=0.92 kw=12.0 daily=default_pv_daily_bt 

New "generator.GD.RS.002.176.590" phases=1 bus1=UC1839344.1.2.4 basefreq=60 conn=Delta kv=0.44 pf=0.92 kw=20.0 daily=default_pv_daily_bt 

New "generator.GD.RS.001.751.709" phases=1 bus1=UC510369.1.2.4 basefreq=60 conn=Delta kv=0.44 pf=0.92 kw=6.0 daily=default_pv_daily_bt 

New "generator.GD.RS.001.813.725" phases=3 bus1=UC1839191.1.2.3.4 basefreq=60 conn=Delta kv=0.38 pf=0.92 kw=16.65 daily=default_pv_daily_bt 

New "generator.GD.RS.001.751.969" phases=3 bus1=UC1839092.1.2.3.4 basefreq=60 conn=Delta kv=0.38 pf=0.92 kw=30.0 daily=default_pv_daily_bt 

New "generator.GD.RS.001.591.749" phases=1 bus1=UC1809094.2.4 basefreq=60 conn=Wye kv=0.2193931022920578 pf=0.92 kw=3.6 daily=default_pv_daily_bt 

New "generator.GD.RS.001.429.944" phases=1 bus1=UC1829219.1.4 basefreq=60 conn=Wye kv=0.2193931022920578 pf=0.92 kw=3.6 daily=default_pv_daily_bt 

New "generator.GD.RS.001.067.156" phases=1 bus1=UC2709405.1.2.4 basefreq=60 conn=Delta kv=0.44 pf=0.92 kw=4.5 daily=default_pv_daily_bt 

New "generator.GD.RS.001.591.916" phases=3 bus1=UC2307010.1.2.3.4 basefreq=60 conn=Delta kv=0.38 pf=0.92 kw=12.0 daily=default_pv_daily_bt 

New "generator.GD.RS.000.912.760" phases=3 bus1=UC1704961.1.2.3.4 basefreq=60 conn=Delta kv=0.38 pf=0.92 kw=32.0 daily=default_pv_daily_bt 

New "generator.GD.RS.001.001.931" phases=1 bus1=UC1808023.1.4 basefreq=60 conn=Wye kv=0.2193931022920578 pf=0.92 kw=7.5 daily=default_pv_daily_bt 

New "generator.GD.RS.001.591.725" phases=3 bus1=UC1807915.1.2.3.4 basefreq=60 conn=Delta kv=0.38 pf=0.92 kw=5.35 daily=default_pv_daily_bt 

New "generator.GD.RS.000.417.263" phases=3 bus1=UC510001.1.2.3.4 basefreq=60 conn=Delta kv=0.38 pf=0.92 kw=6.03 daily=default_pv_daily_bt 

New "generator.GD.RS.000.820.000" phases=1 bus1=UC1704810.1.4 basefreq=60 conn=Wye kv=0.2193931022920578 pf=0.92 kw=12.0 daily=default_pv_daily_bt 

New "generator.GD.RS.000.371.908" phases=1 bus1=UC1807510.1.4 basefreq=60 conn=Wye kv=0.2193931022920578 pf=0.92 kw=5.0 daily=default_pv_daily_bt 

New "generator.GD.RS.001.752.785" phases=1 bus1=UC2938328.1.2.4 basefreq=60 conn=Delta kv=0.44 pf=0.92 kw=12.0 daily=default_pv_daily_bt 

New "generator.GD.RS.001.428.062" phases=1 bus1=UC510105.1.2.4 basefreq=60 conn=Delta kv=0.44 pf=0.92 kw=9.63 daily=default_pv_daily_bt 

New "generator.GD.RS.001.590.842" phases=1 bus1=UC510106.1.4 basefreq=60 conn=Wye kv=0.22 pf=0.92 kw=6.54 daily=default_pv_daily_bt 

New "generator.GD.RS.001.958.433" phases=1 bus1=UC1838151.3.4 basefreq=60 conn=Wye kv=0.2193931022920578 pf=0.92 kw=5.55 daily=default_pv_daily_bt 

New "generator.GD.RS.001.120.544" phases=3 bus1=UC522440.1.2.3.4 basefreq=60 conn=Delta kv=0.38 pf=0.92 kw=60.0 daily=default_pv_daily_bt 

New "generator.GD.RS.000.859.068" phases=1 bus1=UC510091.2.4 basefreq=60 conn=Wye kv=0.22 pf=0.92 kw=3.36 daily=default_pv_daily_bt 

New "generator.GD.RS.000.149.505" phases=1 bus1=UC510092.1.2.4 basefreq=60 conn=Delta kv=0.44 pf=0.92 kw=10.0 daily=default_pv_daily_bt 

New "generator.GD.RS.002.111.996" phases=1 bus1=UC510081.1.4 basefreq=60 conn=Wye kv=0.22 pf=0.92 kw=7.5 daily=default_pv_daily_bt 

New "generator.GD.RS.001.063.332" phases=3 bus1=UC510087.1.2.3.4 basefreq=60 conn=Delta kv=0.38 pf=0.92 kw=4.36 daily=default_pv_daily_bt 

New "generator.GD.RS.000.819.418" phases=3 bus1=UC2338051.1.2.3.4 basefreq=60 conn=Delta kv=0.38 pf=0.92 kw=10.0 daily=default_pv_daily_bt 

New "generator.GD.RS.001.528.786" phases=3 bus1=UC1837776.1.2.3.4 basefreq=60 conn=Delta kv=0.38 pf=0.92 kw=12.0 daily=default_pv_daily_bt 

New "generator.GD.RS.001.590.856" phases=1 bus1=UC510404.1.2.4 basefreq=60 conn=Delta kv=0.44 pf=0.92 kw=14.0 daily=default_pv_daily_bt 

New "generator.GD.RS.002.201.517" phases=1 bus1=UC2737761.2.4 basefreq=60 conn=Wye kv=0.22 pf=0.92 kw=6.0 daily=default_pv_daily_bt 

New "generator.GD.RS.000.523.670" phases=1 bus1=UC2317457.1.4 basefreq=60 conn=Wye kv=0.2193931022920578 pf=0.92 kw=4.0 daily=default_pv_daily_bt 

New "generator.GD.RS.001.674.772" phases=3 bus1=UC510013.1.2.3.4 basefreq=60 conn=Delta kv=0.38 pf=0.92 kw=7.56 daily=default_pv_daily_bt 

New "generator.GD.RS.000.859.231" phases=3 bus1=UC1830339.1.2.3.4 basefreq=60 conn=Delta kv=0.38 pf=0.92 kw=4.76 daily=default_pv_daily_bt 

New "generator.GD.RS.002.132.755" phases=1 bus1=UC1837905.3.4 basefreq=60 conn=Wye kv=0.2193931022920578 pf=0.92 kw=3.0 daily=default_pv_daily_bt 

New "generator.GD.RS.000.506.221" phases=3 bus1=UC2337510.1.2.3.4 basefreq=60 conn=Delta kv=0.38 pf=0.92 kw=30.0 daily=default_pv_daily_bt 

New "generator.GD.RS.000.372.467" phases=1 bus1=UC2306942.2.4 basefreq=60 conn=Wye kv=0.2193931022920578 pf=0.92 kw=6.4 daily=default_pv_daily_bt 

New "generator.GD.RS.000.970.957" phases=3 bus1=UC1737036.1.2.3.4 basefreq=60 conn=Delta kv=0.38 pf=0.92 kw=9.45 daily=default_pv_daily_bt 

New "generator.GD.RS.000.447.292" phases=3 bus1=UC1736917.1.2.3.4 basefreq=60 conn=Delta kv=0.38 pf=0.92 kw=70.0 daily=default_pv_daily_bt 

New "generator.GD.RS.000.310.169" phases=1 bus1=UC2322483.1.4 basefreq=60 conn=Wye kv=0.2193931022920578 pf=0.92 kw=4.0 daily=default_pv_daily_bt 

New "generator.GD.RS.000.310.280" phases=1 bus1=UC2309711.1.4 basefreq=60 conn=Wye kv=0.2193931022920578 pf=0.92 kw=5.0 daily=default_pv_daily_bt 

New "generator.GD.RS.000.344.244" phases=3 bus1=UC1830523.1.2.3.4 basefreq=60 conn=Delta kv=0.38 pf=0.92 kw=17.25 daily=default_pv_daily_bt 

New "generator.GD.RS.001.752.644" phases=3 bus1=UC2336739.1.2.3.4 basefreq=60 conn=Delta kv=0.38 pf=0.92 kw=50.0 daily=default_pv_daily_bt 

New "generator.GD.RS.000.505.494" phases=3 bus1=UC1808208.1.2.3.4 basefreq=60 conn=Delta kv=0.38 pf=0.92 kw=10.14 daily=default_pv_daily_bt 

New "generator.GD.RS.001.993.291" phases=1 bus1=UC1736704.3.4 basefreq=60 conn=Wye kv=0.2193931022920578 pf=0.92 kw=3.0 daily=default_pv_daily_bt 

New "generator.GD.RS.000.761.910" phases=3 bus1=UC2336567.1.2.3.4 basefreq=60 conn=Delta kv=0.38 pf=0.92 kw=4.8 daily=default_pv_daily_bt 

New "generator.GD.RS.000.550.027" phases=3 bus1=UC536564.1.2.3.4 basefreq=60 conn=Delta kv=0.38 pf=0.92 kw=11.07 daily=default_pv_daily_bt 

New "generator.GD.RS.001.066.733" phases=1 bus1=UC1836337.1.2.4 basefreq=60 conn=Delta kv=0.38 pf=0.92 kw=3.06 daily=default_pv_daily_bt 

New "generator.GD.RS.000.819.183" phases=3 bus1=UC1736189.1.2.3.4 basefreq=60 conn=Delta kv=0.38 pf=0.92 kw=20.0 daily=default_pv_daily_bt 

New "generator.GD.RS.000.062.283" phases=3 bus1=UC2910479.1.2.3.4 basefreq=60 conn=Delta kv=0.38 pf=0.92 kw=20.0 daily=default_pv_daily_bt 

New "generator.GD.RS.000.247.512" phases=3 bus1=UC1736066.1.2.3.4 basefreq=60 conn=Delta kv=0.38 pf=0.92 kw=15.0 daily=default_pv_daily_bt 

New "generator.GD.RS.000.276.339" phases=3 bus1=UC2337378.1.2.3.4 basefreq=60 conn=Delta kv=0.38 pf=0.92 kw=33.0 daily=default_pv_daily_bt 

New "generator.GD.RS.001.197.689" phases=3 bus1=UC1807795.1.2.3.4 basefreq=60 conn=Delta kv=0.38 pf=0.92 kw=11.57 daily=default_pv_daily_bt 

New "generator.GD.RS.001.195.404" phases=3 bus1=UC225847.1.2.3.4 basefreq=60 conn=Delta kv=0.38 pf=0.92 kw=30.0 daily=default_pv_daily_bt 

New "generator.GD.RS.001.751.688" phases=3 bus1=UC510089.1.2.3.4 basefreq=60 conn=Delta kv=0.38 pf=0.92 kw=7.65 daily=default_pv_daily_bt 

New "generator.GD.RS.000.969.174" phases=3 bus1=UC1835458.1.2.3.4 basefreq=60 conn=Delta kv=0.38 pf=0.92 kw=20.0 daily=default_pv_daily_bt 

New "generator.GD.RS.000.505.606" phases=1 bus1=UC1835630.2.4 basefreq=60 conn=Wye kv=0.2193931022920578 pf=0.92 kw=2.0 daily=default_pv_daily_bt 

New "generator.GD.RS.000.819.234" phases=3 bus1=UC1835672.1.2.3.4 basefreq=60 conn=Delta kv=0.38 pf=0.92 kw=12.6 daily=default_pv_daily_bt 

New "generator.GD.RS.000.310.328" phases=1 bus1=UC2935298.1.4 basefreq=60 conn=Wye kv=0.22 pf=0.92 kw=5.0 daily=default_pv_daily_bt 

New "generator.GD.RS.001.751.961" phases=3 bus1=UC1835300.1.2.3.4 basefreq=60 conn=Delta kv=0.38 pf=0.92 kw=2.66 daily=default_pv_daily_bt 

New "generator.GD.RS.000.819.002" phases=3 bus1=UC1735435.1.2.3.4 basefreq=60 conn=Delta kv=0.38 pf=0.92 kw=30.0 daily=default_pv_daily_bt 

New "generator.GD.RS.000.859.284" phases=1 bus1=UC1835383.2.4 basefreq=60 conn=Wye kv=0.2193931022920578 pf=0.92 kw=2.0 daily=default_pv_daily_bt 

New "generator.GD.RS.000.550.116" phases=3 bus1=UC2935382.1.2.3.4 basefreq=60 conn=Delta kv=0.38 pf=0.92 kw=40.0 daily=default_pv_daily_bt 

New "generator.GD.RS.000.588.226" phases=1 bus1=UC2335215.1.2.4 basefreq=60 conn=Delta kv=0.38 pf=0.92 kw=8.0 daily=default_pv_daily_bt 

New "generator.GD.RS.000.473.692" phases=3 bus1=UC2935168.1.2.3.4 basefreq=60 conn=Delta kv=0.38 pf=0.92 kw=60.0 daily=default_pv_daily_bt 

New "generator.GD.RS.000.824.505" phases=3 bus1=UC1734901.1.2.3.4 basefreq=60 conn=Delta kv=0.38 pf=0.92 kw=15.07 daily=default_pv_daily_bt 

New "generator.GD.RS.000.505.536" phases=3 bus1=UC1835027.1.2.3.4 basefreq=60 conn=Delta kv=0.38 pf=0.92 kw=12.0 daily=default_pv_daily_bt 

New "generator.GD.RS.000.400.634" phases=3 bus1=UC1834990.1.2.3.4 basefreq=60 conn=Delta kv=0.38 pf=0.92 kw=40.0 daily=default_pv_daily_bt 

New "generator.GD.RS.001.370.365" phases=1 bus1=UC1834546.3.4 basefreq=60 conn=Wye kv=0.2193931022920578 pf=0.92 kw=6.67 daily=default_pv_daily_bt 

New "generator.GD.RS.000.588.168" phases=3 bus1=UC2334545.1.2.3.4 basefreq=60 conn=Delta kv=0.38 pf=0.92 kw=6.7 daily=default_pv_daily_bt 

New "generator.GD.RS.000.819.222" phases=1 bus1=UC1834495.1.4 basefreq=60 conn=Wye kv=0.2193931022920578 pf=0.92 kw=2.04 daily=default_pv_daily_bt 

New "generator.GD.RS.001.368.986" phases=1 bus1=UC1834147.2.4 basefreq=60 conn=Wye kv=0.2193931022920578 pf=0.92 kw=3.22 daily=default_pv_daily_bt 

New "generator.GD.RS.001.675.307" phases=1 bus1=UC1704826.1.2.4 basefreq=60 conn=Delta kv=0.44 pf=0.92 kw=8.64 daily=default_pv_daily_bt 

New "generator.GD.RS.001.675.415" phases=1 bus1=UC1834057.1.2.4 basefreq=60 conn=Delta kv=0.38 pf=0.92 kw=5.0 daily=default_pv_daily_bt 

New "generator.GD.RS.000.824.545" phases=3 bus1=UC1834141.1.2.3.4 basefreq=60 conn=Delta kv=0.38 pf=0.92 kw=8.8 daily=default_pv_daily_bt 

New "generator.GD.RS.000.324.089" phases=3 bus1=UC2334005.1.2.3.4 basefreq=60 conn=Delta kv=0.38 pf=0.92 kw=13.6 daily=default_pv_daily_bt 

New "generator.GD.RS.001.923.244" phases=3 bus1=UC2934058.1.2.3.4 basefreq=60 conn=Delta kv=0.38 pf=0.92 kw=20.0 daily=default_pv_daily_bt 

New "generator.GD.RS.002.034.251" phases=1 bus1=UC1733784.1.2.4 basefreq=60 conn=Delta kv=0.44 pf=0.92 kw=15.4 daily=default_pv_daily_bt 

New "generator.GD.RS.001.676.319" phases=1 bus1=UC2333516.1.2.4 basefreq=60 conn=Delta kv=0.44 pf=0.92 kw=16.0 daily=default_pv_daily_bt 

New "generator.GD.RS.000.473.566" phases=3 bus1=UC1833615.1.2.3.4 basefreq=60 conn=Delta kv=0.38 pf=0.92 kw=25.0 daily=default_pv_daily_bt 

New "generator.GD.RS.001.198.062" phases=1 bus1=UC1833435.1.2.4 basefreq=60 conn=Delta kv=0.38 pf=0.92 kw=10.0 daily=default_pv_daily_bt 

New "generator.GD.RS.000.400.917" phases=1 bus1=UC2333298.1.4 basefreq=60 conn=Wye kv=0.22 pf=0.92 kw=2.72 daily=default_pv_daily_bt 

New "generator.GD.RS.000.523.681" phases=1 bus1=UC2333222.1.4 basefreq=60 conn=Wye kv=0.2193931022920578 pf=0.92 kw=4.0 daily=default_pv_daily_bt 

New "generator.GD.RS.000.824.534" phases=1 bus1=UC1832957.2.3.4 basefreq=60 conn=Delta kv=0.38 pf=0.92 kw=6.0 daily=default_pv_daily_bt 

New "generator.GD.RS.001.591.762" phases=1 bus1=UC1832924.1.4 basefreq=60 conn=Wye kv=0.2193931022920578 pf=0.92 kw=4.86 daily=default_pv_daily_bt 

New "generator.GD.RS.000.761.625" phases=3 bus1=UC1832923.1.2.3.4 basefreq=60 conn=Delta kv=0.38 pf=0.92 kw=5.4 daily=default_pv_daily_bt 

New "generator.GD.RS.000.859.260" phases=1 bus1=UC1832688.3.1.4 basefreq=60 conn=Delta kv=0.38 pf=0.92 kw=5.78 daily=default_pv_daily_bt 

New "generator.GD.RS.000.447.090" phases=3 bus1=UC2332656.1.2.3.4 basefreq=60 conn=Delta kv=0.38 pf=0.92 kw=4.48 daily=default_pv_daily_bt 

New "generator.GD.RS.000.324.055" phases=1 bus1=UC2332653.1.2.4 basefreq=60 conn=Delta kv=0.44 pf=0.92 kw=8.38 daily=default_pv_daily_bt 

New "generator.GD.RS.001.591.994" phases=3 bus1=UC2332651.1.2.3.4 basefreq=60 conn=Delta kv=0.38 pf=0.92 kw=5.6 daily=default_pv_daily_bt 

New "generator.GD.RS.002.132.744" phases=1 bus1=UC1832352.1.4 basefreq=60 conn=Wye kv=0.22 pf=0.92 kw=3.0 daily=default_pv_daily_bt 

New "generator.GD.RS.000.586.593" phases=3 bus1=UC2931935.1.2.3.4 basefreq=60 conn=Delta kv=0.38 pf=0.92 kw=26.4 daily=default_pv_daily_bt 

New "generator.GD.RS.000.197.322" phases=3 bus1=UC1832228.1.2.3.4 basefreq=60 conn=Delta kv=0.38 pf=0.92 kw=15.0 daily=default_pv_daily_bt 

New "generator.GD.RS.001.751.953" phases=1 bus1=UC1832224.1.2.4 basefreq=60 conn=Delta kv=0.38 pf=0.92 kw=4.08 daily=default_pv_daily_bt 

New "generator.GD.RS.000.588.181" phases=3 bus1=UC1832116.1.2.3.4 basefreq=60 conn=Delta kv=0.38 pf=0.92 kw=15.0 daily=default_pv_daily_bt 

New "generator.GD.RS.001.430.189" phases=3 bus1=UC1832101.1.2.3.4 basefreq=60 conn=Delta kv=0.38 pf=0.92 kw=7.49 daily=default_pv_daily_bt 

New "generator.GD.RS.001.676.274" phases=1 bus1=UC2331626.2.4 basefreq=60 conn=Wye kv=0.2193931022920578 pf=0.92 kw=3.0 daily=default_pv_daily_bt 

New "generator.GD.RS.000.505.506" phases=1 bus1=UC1831552.1.2.4 basefreq=60 conn=Delta kv=0.38 pf=0.92 kw=9.04 daily=default_pv_daily_bt 

New "generator.GD.RS.001.430.667" phases=3 bus1=UC2331618.1.2.3.4 basefreq=60 conn=Delta kv=0.38 pf=0.92 kw=27.0 daily=default_pv_daily_bt 

New "generator.GD.RS.001.002.081" phases=3 bus1=UC1831236.1.2.3.4 basefreq=60 conn=Delta kv=0.38 pf=0.92 kw=13.35 daily=default_pv_daily_bt 

New "generator.GD.RS.000.310.394" phases=3 bus1=UC1831234.1.2.3.4 basefreq=60 conn=Delta kv=0.38 pf=0.92 kw=11.39 daily=default_pv_daily_bt 

New "generator.GD.RS.000.097.383" phases=3 bus1=UC2330785.1.2.3.4 basefreq=60 conn=Delta kv=0.38 pf=0.92 kw=16.5 daily=default_pv_daily_bt 

New "generator.GD.RS.000.965.755" phases=3 bus1=UC230556.1.2.3.4 basefreq=60 conn=Delta kv=0.38 pf=0.92 kw=5.91 daily=default_pv_daily_bt 

New "generator.GD.RS.001.528.768" phases=3 bus1=UC1830144.1.2.3.4 basefreq=60 conn=Delta kv=0.38 pf=0.92 kw=4.95 daily=default_pv_daily_bt 

New "generator.GD.RS.001.429.957" phases=1 bus1=UC1829719.3.4 basefreq=60 conn=Wye kv=0.2193931022920578 pf=0.92 kw=3.0 daily=default_pv_daily_bt 

New "generator.GD.RS.000.068.287" phases=3 bus1=UC1830145.1.2.3.4 basefreq=60 conn=Delta kv=0.38 pf=0.92 kw=19.8 daily=default_pv_daily_bt 

New "generator.GD.RS.001.120.699" phases=3 bus1=UC1729694.1.2.3.4 basefreq=60 conn=Delta kv=0.38 pf=0.92 kw=20.0 daily=default_pv_daily_bt 

New "generator.GD.RS.000.324.042" phases=3 bus1=UC2330043.1.2.3.4 basefreq=60 conn=Delta kv=0.38 pf=0.92 kw=15.0 daily=default_pv_daily_bt 

New "generator.GD.RS.000.971.031" phases=3 bus1=UC1730121.1.2.3.4 basefreq=60 conn=Delta kv=0.38 pf=0.92 kw=15.0 daily=default_pv_daily_bt 

New "generator.GD.RS.000.291.780" phases=1 bus1=UC1830340.2.4 basefreq=60 conn=Wye kv=0.2193931022920578 pf=0.92 kw=4.0 daily=default_pv_daily_bt 

New "generator.GD.RS.000.912.789" phases=3 bus1=UC1830341.1.2.3.4 basefreq=60 conn=Delta kv=0.38 pf=0.92 kw=60.0 daily=default_pv_daily_bt 

New "generator.GD.RS.001.198.648" phases=3 bus1=UC2328830.1.2.3.4 basefreq=60 conn=Delta kv=0.38 pf=0.92 kw=14.85 daily=default_pv_daily_bt 

New "generator.GD.RS.000.588.170" phases=1 bus1=UC2328577.3.4 basefreq=60 conn=Wye kv=0.2193931022920578 pf=0.92 kw=4.0 daily=default_pv_daily_bt 

New "generator.GD.RS.000.291.770" phases=1 bus1=UC2328580.1.4 basefreq=60 conn=Wye kv=0.2193931022920578 pf=0.92 kw=4.0 daily=default_pv_daily_bt 

New "generator.GD.RS.001.002.063" phases=1 bus1=UC1828584.1.4 basefreq=60 conn=Wye kv=0.2193931022920578 pf=0.92 kw=3.21 daily=default_pv_daily_bt 

New "generator.GD.RS.000.588.177" phases=3 bus1=UC2329451.1.2.3.4 basefreq=60 conn=Delta kv=0.38 pf=0.92 kw=10.72 daily=default_pv_daily_bt 

New "generator.GD.RS.000.686.328" phases=1 bus1=UC1829217.3.4 basefreq=60 conn=Wye kv=0.2193931022920578 pf=0.92 kw=3.56 daily=default_pv_daily_bt 

New "generator.GD.RS.000.550.083" phases=1 bus1=UC2328832.1.4 basefreq=60 conn=Wye kv=0.2193931022920578 pf=0.92 kw=3.0 daily=default_pv_daily_bt 

